*INCLUDE, INPUT=allinone.inp

*MATERIAL,NAME=al2024t4
*ELASTIC
7.3000E+07,0.33

*SHELL SECTION,MATERIAL=al2024t4,ELSET=S8R,
2.0000E-03

*BOUNDARY
Fix,1,1,0
Fix,2,2,0
Fix,3,3,0
Fix,4,4,0
Fix,5,5,0
Fix,6,6,0

*STEP
*STATIC

*DLOAD
PressureLoad, P, 50

  *NODE FILE 
U,
  *EL FILE
S,
*NODE PRINT,NSET=Fix
RF
*END STEP
