**INCLUDE, INPUT=allinone.inp
*INCLUDE, INPUT=allinoneInModes.inp

*MATERIAL,NAME=steel
*ELASTIC
2.0900E+05,0.3

*SOLID SECTION,MATERIAL=steel,ELSET=Eall

*BOUNDARY
Fix,1,1,0
Fix,2,2,0
Fix,3,3,0

*STEP
*STATIC
*DLOAD
LOAD, P2, 0.5
  *NODE FILE 
U,
  *EL FILE
S,
*NODE PRINT,NSET=Fix
RF
*END STEP
